/*--------------------------------*- C++ -*----------------------------------*\
| =========                 |                                                 |
| \\      /  F ield         | OpenFOAM: The Open Source CFD Toolbox           |
|  \\    /   O peration     | Version:  2.3.x                                 |
|   \\  /    A nd           | Web:      www.OpenFOAM.org                      |
|    \\/     M anipulation  |                                                 |
|*---------------------------------------------------------------------------*|
|  File created by CFD support s.r.o., Thu Oct 30 12:53:44 2014               |
|                    http://www.cdfsupport.com                                |
\*---------------------------------------------------------------------------*/
FoamFile
{
    version     2.3;
    format      ascii;
    class       dictionary;
    location    "system";
    object      decomposeParDict;
}
// * * * * * * * * * * * * * * * * * * * * * * * * * * * * * * * * * * * * * //

numberOfSubdomains   6;

//method		simple;
method          scotch;

simpleCoeffs
{
    n               (1 1 8);
    delta           0.001;
}

hierarchicalCoeffs
{
    n               (3 2 1);
    delta           0.001;
    order           xyz;
}

manualCoeffs
{
    dataFile        "cellDecomposition";
}


// ************************************************************************* //
