/*--------------------------------*- C++ -*----------------------------------*\
| =========                 |                                                 |
| \\      /  F ield         | OpenFOAM: The Open Source CFD Toolbox           |
|  \\    /   O peration     | Version:  2.3.x                                 |
|   \\  /    A nd           | Web:      www.OpenFOAM.org                      |
|    \\/     M anipulation  |                                                 |
|*---------------------------------------------------------------------------*|
|  File created by CFD support s.r.o., Tue Sep 30 12:50:05 2014               |
|                    http://www.cdfsupport.com                                |
\*---------------------------------------------------------------------------*/
FoamFile
{
    version     2.3;
    format      ascii;
    class       dictionary;
    location    "system";
    object      fvSchemes;
}
// * * * * * * * * * * * * * * * * * * * * * * * * * * * * * * * * * * * * * //

ddtSchemes
{
    default         backward;
}

gradSchemes
{
    default         Gauss linear;
    
    grad(U)	    cellLimited Gauss linear 1;
    grad(nuTilda)   cellLimited Gauss linear 1;
}

divSchemes
{
    default         none;
    
    div(phi,U)       Gauss upwind;
    div(phi,k)       Gauss upwind;
    div(phi,nuTilda) Gauss upwind;
    
    div((nuEff*dev2(T(grad(U))))) Gauss linear;
}

laplacianSchemes
{
    default         Gauss linear limited corrected 0.33;
}

interpolationSchemes
{
    default         linear;
}

snGradSchemes
{
    default         limited corrected 0.33;
}

fluxRequired
{
    default         no;
    p;
}

wallDist
{
    method meshWave;
}

// ************************************************************************* //
