/*--------------------------------*- C++ -*----------------------------------*\
| =========                 |                                                 |
| \\      /  F ield         | OpenFOAM: The Open Source CFD Toolbox           |
|  \\    /   O peration     | Version:  2.3.x                                 |
|   \\  /    A nd           | Web:      www.OpenFOAM.org                      |
|    \\/     M anipulation  |                                                 |
|*---------------------------------------------------------------------------*|
|  File created by CFD support s.r.o., Tue Sep 30 12:37:49 2014               |
|                    http://www.cdfsupport.com                                |
\*---------------------------------------------------------------------------*/
FoamFile
{
    version     2.3;
    format      ascii;
    class       dictionary;
    location    "system";
    object      fvSolution;
}
// * * * * * * * * * * * * * * * * * * * * * * * * * * * * * * * * * * * * * //

solvers
{
    p
    {
        solver           GAMG;
        tolerance        1e-8;
        relTol           0.1;
        smoother         GaussSeidel;
        nPreSweeps       0;
        nPostSweeps      2;
        cacheAgglomeration on;
        agglomerator     faceAreaPair;
        nCellsInCoarsestLevel 10;
        mergeLevels      1;
    }
    
    pFinal
    {
	$p;
	tolerance       1e-6;
	relTol          0;
    };

    U
    {
        solver           smoothSolver;
        smoother         GaussSeidel;
        tolerance        1e-8;
        relTol           0.1;
        nSweeps          1;
    }

    "(U|k|B|nuTilda)"
    {
	solver          smoothSolver;
	smoother        GaussSeidel;
	tolerance       1e-07;
	relTol          0;
    };
}

potentialFlow
{
    nNonOrthogonalCorrectors 5;
}

PISO
{
    nCorrectors     2;
    nNonOrthogonalCorrectors 1;
}

relaxationFactors
{
    "U.*"               1;
    "nuTilda.*"         1;
}

// ************************************************************************* //
