/*--------------------------------*- C++ -*----------------------------------*\
| =========                 |                                                 |
| \\      /  F ield         | OpenFOAM: The Open Source CFD Toolbox           |
|  \\    /   O peration     | Version:  2.3.x                                 |
|   \\  /    A nd           | Web:      www.OpenFOAM.org                      |
|    \\/     M anipulation  |                                                 |
|*---------------------------------------------------------------------------*|
|  File created by CFD support s.r.o., Tue Sep 30 12:16:17 2014               |
|                    http://www.cdfsupport.com                                |
\*---------------------------------------------------------------------------*/
FoamFile
{
    version     2.3;
    format      ascii;
    class       volScalarField;
    location    "0.org";
    object      nut;
}
// * * * * * * * * * * * * * * * * * * * * * * * * * * * * * * * * * * * * * //

dimensions      [ 0 2 -1 0 0 0 0 ];

internalField   uniform 0;

boundaryField
{
    frontAndBack
    {
        type            slip;
        value           uniform 0;
    }
    inlet
    {
        type            calculated;
        value           uniform 0;
    }
    outlet
    {
        type            calculated;
        value           uniform 0;
    }
    lowerWall
    {
        type            slip;
        value           uniform 0;
    }
    upperWall
    {
	type            slip;
	value           uniform 0;
    }
    A320
    {
        type            nutUSpaldingWallFunction;
        value           uniform 0;
    }
}


// ************************************************************************* //
